E:\Tim_Program\AeroDynDll\AeroDynDll_vs_2022\AeroDynDll\dllmain.cpp;E:\Tim_Program\AeroDynDll\AeroDynDll_vs_2022\AeroDynDll\x64\Release\dllmain.obj
E:\Tim_Program\AeroDynDll\AeroDynDll_vs_2022\AeroDynDll\pch.cpp;E:\Tim_Program\AeroDynDll\AeroDynDll_vs_2022\AeroDynDll\x64\Release\pch.obj
E:\Tim_Program\AeroDynDll\AeroDynDll_vs_2022\AeroDynDll\SharedDll.cpp;E:\Tim_Program\AeroDynDll\AeroDynDll_vs_2022\AeroDynDll\x64\Release\SharedDll.obj
E:\Tim_Program\AeroDynDll\AeroDynDll_vs_2022\AeroDynDll\wavespectral_dll.cpp;E:\Tim_Program\AeroDynDll\AeroDynDll_vs_2022\AeroDynDll\x64\Release\wavespectral_dll.obj
