E:\Tim_Program\AeroDynDll\AeroDynDll_vs_2022\StartExe\Start.cpp;E:\Tim_Program\AeroDynDll\AeroDynDll_vs_2022\StartExe\x64\Release\Start.obj
E:\Tim_Program\AeroDynDll\AeroDynDll_vs_2022\StartExe\wavespectral.cpp;E:\Tim_Program\AeroDynDll\AeroDynDll_vs_2022\StartExe\x64\Release\wavespectral.obj
