PlatformToolSet=v143:VCToolArchitecture=Native64Bit:VCToolsVersion=14.36.32532:TargetPlatformVersion=10.0.22000.0:
Release|x64|E:\Tim_Program\AeroDynDll\AeroDynDll_vs_2022\|
