<?xml version="1.0" encoding="utf-8"?>
<Project>
  <ProjectOutputs>E:\TiM_Programing\AeroDynDll\x64\Release\AeroDynDll.dll</ProjectOutputs>
  <ContentFiles></ContentFiles>
  <SatelliteDlls></SatelliteDlls>
  <NonRecipeFileRefs></NonRecipeFileRefs>
</Project>