<?xml version="1.0" encoding="utf-8"?>
<Project>
  <ProjectOutputs>
    <ProjectOutput>
      <FullPath>E:\Tim_Program\AeroDynDll\AeroDynDll_vs_2022\x64\Release\AeroDynDll.dll</FullPath>
    </ProjectOutput>
  </ProjectOutputs>
  <ContentFiles />
  <SatelliteDlls />
  <NonRecipeFileRefs />
</Project>